  
       XFOIL         Version 6.99
  
 Calculated polar for: Clark Y                                         
  
 1 1 Reynolds number fixed          Mach number fixed         
  
 xtrf =   1.000 (top)        1.000 (bottom)  
 Mach =   0.345     Re =     0.004 e 6     Ncrit =   9.000
  
   alpha    CL        CD       CDp       CM     Top_Xtr  Bot_Xtr
  ------ -------- --------- --------- -------- -------- --------
   4.000   0.1973   0.08208   0.04232  -0.0247   1.0000   1.0000
