  
       XFOIL         Version 6.99
  
 Calculated polar for: Clark Y                                         
  
 1 1 Reynolds number fixed          Mach number fixed         
  
 xtrf =   1.000 (top)        1.000 (bottom)  
 Mach =   0.031     Re =     0.019 e 6     Ncrit =   9.000
  
   alpha    CL        CD       CDp       CM     Top_Xtr  Bot_Xtr
  ------ -------- --------- --------- -------- -------- --------
  11.019   0.5314   0.12344   0.10735  -0.0528   0.9695   1.0000
